Circuit: * C:\Users\User_Admin\Downloads\PWM_(Buck)\PWM_(Buck)\LT1243.asc

Direct Newton iteration for .op point succeeded.

Date: Sat Feb 11 12:09:44 2023
Total elapsed time: 10.989 seconds.

tnom = 27
temp = 27
method = modified trap
totiter = 758434
traniter = 758417
tranpoints = 195829
accept = 144341
rejected = 51488
matrix size = 54
fillins = 47
solver = Normal
Thread vector: 24.2/8.8[2] 4.7/4.4[1] 1.3/1.4[1] 0.5/1.1[1]  2592/500
Matrix Compiler1: 4.81 KB object code size  1.7/1.0/[0.7]
Matrix Compiler2: 4.72 KB object code size  0.7/1.1/[0.6]

